OPT_V9/My_campus_w_initial_sub_3_active_28_03_16_28/network_debug.txt
Pandapower Network Debug Info
==================================================

BUS:
          name  vn_kv type  zone  in_service   geo
0        Bus 8    0.4    b  None        True  None
1        Bus 9    0.4    b  None        True  None
2       Bus 10    0.4    b  None        True  None
3       Bus 11    0.4    b  None        True  None
4       Bus 16    0.4    b  None        True  None
5       Bus 17    0.4    b  None        True  None
6       Bus 18    0.4    b  None        True  None
7       Bus 19    0.4    b  None        True  None
8       Bus 20    0.4    b  None        True  None
9       Bus 21   15.0    b  None        True  None
10      Bus 22   15.0    b  None        True  None
11      Bus 23   15.0    b  None        True  None
12      Bus 24   15.0    b  None        True  None
13      Bus 25   15.0    b  None        True  None
14      Bus 26   15.0    b  None        True  None
15    Sub MV 2   15.0    b  None        True  None
16    Sub LV 2    0.4    b  None        True  None
17    Sub MV 5   15.0    b  None        True  None
18    Sub LV 5    0.4    b  None        True  None
19  Slack HV 0   70.0    b  None        True  None
20  Slack MV 0   15.0    b  None        True  None
21  Slack HV 1   70.0    b  None        True  None
22  Slack MV 1   15.0    b  None        True  None
--------------------------------------------------

LOAD:
          name  bus      p_mw        q_mvar  const_z_percent  const_i_percent  sn_mva  scaling  in_service type
0    Load 8 T1    0 -0.003869  2.488880e-04              0.0              0.0     NaN      1.0        True  wye
1    Load 8 T2    0 -0.002298 -5.955572e-03              0.0              0.0     NaN      1.0        True  wye
2    Load 8 T3    0 -0.001677 -5.750616e-03              0.0              0.0     NaN      1.0        True  wye
3    Load 8 T4    0 -0.000037 -3.492320e-03              0.0              0.0     NaN      1.0        True  wye
4    Load 9 T1    1 -0.001049 -7.882277e-07              0.0              0.0     NaN      1.0        True  wye
5    Load 9 T2    1 -0.001061 -1.056807e-03              0.0              0.0     NaN      1.0        True  wye
6    Load 9 T3    1  0.000171 -1.159417e-03              0.0              0.0     NaN      1.0        True  wye
7    Load 9 T4    1 -0.000998 -7.882277e-07              0.0              0.0     NaN      1.0        True  wye
8   Load 10 T1    2 -0.001057  0.000000e+00              0.0              0.0     NaN      1.0        True  wye
9   Load 10 T2    2  0.000004  0.000000e+00              0.0              0.0     NaN      1.0        True  wye
10  Load 10 T3    2 -0.000434  0.000000e+00              0.0              0.0     NaN      1.0        True  wye
11  Load 10 T4    2 -0.001057  0.000000e+00              0.0              0.0     NaN      1.0        True  wye
12  Load 11 T1    3 -0.001762 -2.726648e-04              0.0              0.0     NaN      1.0        True  wye
13  Load 11 T2    3  0.000686 -2.572022e-04              0.0              0.0     NaN      1.0        True  wye
14  Load 11 T3    3  0.000434 -8.179278e-04              0.0              0.0     NaN      1.0        True  wye
15  Load 11 T4    3  0.002142 -9.570305e-04              0.0              0.0     NaN      1.0        True  wye
16  Load 16 T1    4 -0.000435 -1.789216e-07              0.0              0.0     NaN      1.0        True  wye
17  Load 16 T2    4  0.001208 -4.359488e-04              0.0              0.0     NaN      1.0        True  wye
18  Load 16 T3    4  0.001054 -8.456185e-04              0.0              0.0     NaN      1.0        True  wye
19  Load 16 T4    4  0.001056  8.942049e-05              0.0              0.0     NaN      1.0        True  wye
20  Load 17 T1    5 -0.000386 -1.285187e-05              0.0              0.0     NaN      1.0        True  wye
21  Load 17 T2    5  0.001055 -1.058570e-03              0.0              0.0     NaN      1.0        True  wye
22  Load 17 T3    5  0.000969 -6.336068e-04              0.0              0.0     NaN      1.0        True  wye
23  Load 17 T4    5  0.000215 -9.350562e-04              0.0              0.0     NaN      1.0        True  wye
24  Load 18 T1    6 -0.002974  0.000000e+00              0.0              0.0     NaN      1.0        True  wye
25  Load 18 T2    6 -0.001057  0.000000e+00              0.0              0.0     NaN      1.0        True  wye
26  Load 18 T3    6 -0.001057 -1.127530e-03              0.0              0.0     NaN      1.0        True  wye
27  Load 18 T4    6 -0.001057 -4.342718e-04              0.0              0.0     NaN      1.0        True  wye
28  Load 19 T1    7 -0.004576 -1.131459e-05              0.0              0.0     NaN      1.0        True  wye
29  Load 19 T2    7  0.001510 -1.953443e-03              0.0              0.0     NaN      1.0        True  wye
30  Load 19 T3    7  0.000430 -2.331503e-03              0.0              0.0     NaN      1.0        True  wye
31  Load 19 T4    7 -0.000441 -3.055141e-03              0.0              0.0     NaN      1.0        True  wye
32  Load 20 T1    8 -0.001317 -4.346686e-04              0.0              0.0     NaN      1.0        True  wye
33  Load 20 T2    8  0.001413 -5.298196e-03              0.0              0.0     NaN      1.0        True  wye
34  Load 20 T3    8 -0.000006 -4.730139e-03              0.0              0.0     NaN      1.0        True  wye
35  Load 20 T4    8 -0.002119 -5.163074e-03              0.0              0.0     NaN      1.0        True  wye
36  Load 21 T1    9  0.001822  9.833248e-03              0.0              0.0     NaN      1.0        True  wye
37  Load 21 T2    9  0.010001  8.184775e-03              0.0              0.0     NaN      1.0        True  wye
38  Load 21 T3    9  0.010685  1.018978e-02              0.0              0.0     NaN      1.0        True  wye
39  Load 21 T4    9  0.008603  1.117383e-02              0.0              0.0     NaN      1.0        True  wye
40  Load 22 T1   10  0.002783  8.108654e-03              0.0              0.0     NaN      1.0        True  wye
41  Load 22 T2   10  0.013174  1.019998e-02              0.0              0.0     NaN      1.0        True  wye
42  Load 22 T3   10  0.010224  7.490049e-03              0.0              0.0     NaN      1.0        True  wye
43  Load 22 T4   10  0.009717  9.993389e-03              0.0              0.0     NaN      1.0        True  wye
44  Load 23 T1   11  0.004553  1.121126e-02              0.0              0.0     NaN      1.0        True  wye
45  Load 23 T2   11  0.013858  1.019387e-02              0.0              0.0     NaN      1.0        True  wye
46  Load 23 T3   11  0.013668  1.265095e-02              0.0              0.0     NaN      1.0        True  wye
47  Load 23 T4   11  0.010522  1.009803e-02              0.0              0.0     NaN      1.0        True  wye
48  Load 24 T1   12 -0.001558  5.584324e-03              0.0              0.0     NaN      1.0        True  wye
49  Load 24 T2   12  0.008345  5.243223e-03              0.0              0.0     NaN      1.0        True  wye
50  Load 24 T3   12  0.008891  7.044253e-03              0.0              0.0     NaN      1.0        True  wye
51  Load 24 T4   12  0.010812  5.426368e-03              0.0              0.0     NaN      1.0        True  wye
52  Load 25 T1   13  0.002855  1.136530e-02              0.0              0.0     NaN      1.0        True  wye
53  Load 25 T2   13  0.012270  1.077541e-02              0.0              0.0     NaN      1.0        True  wye
54  Load 25 T3   13  0.012713  9.072217e-03              0.0              0.0     NaN      1.0        True  wye
55  Load 25 T4   13  0.012388  1.062257e-02              0.0              0.0     NaN      1.0        True  wye
56  Load 26 T1   14  0.006969  9.924552e-03              0.0              0.0     NaN      1.0        True  wye
57  Load 26 T2   14  0.011005  1.309160e-02              0.0              0.0     NaN      1.0        True  wye
58  Load 26 T3   14  0.012750  1.391945e-02              0.0              0.0     NaN      1.0        True  wye
59  Load 26 T4   14  0.015427  1.252335e-02              0.0              0.0     NaN      1.0        True  wye
--------------------------------------------------

EXT_GRID:
        name  bus  vm_pu  va_degree  slack_weight  in_service
0  ExtGrid 0   19    1.0        0.0           1.0        True
1  ExtGrid 1   21    1.0        0.0           1.0        True
--------------------------------------------------

LINE:
       name std_type  from_bus  to_bus  length_km  r_ohm_per_km  x_ohm_per_km  c_nf_per_km  g_us_per_km  max_i_ka   df  parallel  type  in_service   geo
0    Line 0     None        20      15   0.400000        0.5502         0.429          0.0          0.0      0.23  1.0         1  None        True  None
1    Line 7     None        22      17   1.100000        0.5502         0.429          0.0          0.0      0.23  1.0         1  None        True  None
2    Line 8     None        15       9   0.316228        0.5502         0.429          0.0          0.0      0.23  1.0         1  None        True  None
3   Line 17     None        17      12   0.141421        0.5502         0.429          0.0          0.0      0.23  1.0         1  None        True  None
4   Line 19     None        17      14   0.223607        0.5502         0.429          0.0          0.0      0.23  1.0         1  None        True  None
5   Line 20     None        16       0   0.136015        0.5502         0.429          0.0          0.0      0.23  1.0         1  None        True  None
6   Line 34     None        18       5   0.225610        0.5502         0.429          0.0          0.0      0.23  1.0         1  None        True  None
7   Line 36     None        18       7   0.196469        0.5502         0.429          0.0          0.0      0.23  1.0         1  None        True  None
8   Line 37     None        18       8   0.050000        0.5502         0.429          0.0          0.0      0.23  1.0         1  None        True  None
9   Line 38     None        10       9   0.141421        0.5502         0.429          0.0          0.0      0.23  1.0         1  None        True  None
10  Line 40     None        11      10   0.200000        0.5502         0.429          0.0          0.0      0.23  1.0         1  None        True  None
11  Line 43     None        14      13   0.200000        0.5502         0.429          0.0          0.0      0.23  1.0         1  None        True  None
12  Line 44     None         1       0   0.172047        0.5502         0.429          0.0          0.0      0.23  1.0         1  None        True  None
13  Line 46     None         3       0   0.194165        0.5502         0.429          0.0          0.0      0.23  1.0         1  None        True  None
14  Line 47     None         2       1   0.263059        0.5502         0.429          0.0          0.0      0.23  1.0         1  None        True  None
15  Line 52     None         8       4   0.353836        0.5502         0.429          0.0          0.0      0.23  1.0         1  None        True  None
16  Line 53     None         6       5   0.253180        0.5502         0.429          0.0          0.0      0.23  1.0         1  None        True  None
--------------------------------------------------

TRAFO:
                  name std_type  hv_bus  lv_bus  sn_mva  vn_hv_kv  vn_lv_kv  vk_percent  vkr_percent  pfe_kw  i0_percent  shift_degree tap_side  tap_neutral  tap_min  tap_max  tap_step_percent  tap_step_degree  tap_pos tap_changer_type  id_characteristic_table  tap_dependency_table  parallel   df  in_service
0  MV/LV Transformer 2     None      15      16    10.0      15.0       0.4        0.01         0.01    0.01        0.01           0.0     None          NaN      NaN      NaN               NaN              NaN      NaN              NaN                     <NA>                 False         1  1.0        True
1  MV/LV Transformer 5     None      17      18    10.0      15.0       0.4        0.01         0.01    0.01        0.01           0.0     None          NaN      NaN      NaN               NaN              NaN      NaN              NaN                     <NA>                 False         1  1.0        True
2  Slack Transformer 0     None      19      20    40.0      70.0      15.0        0.01         0.01    0.01        0.01           0.0     None          NaN      NaN      NaN               NaN              NaN      NaN              NaN                     <NA>                 False         1  1.0        True
3  Slack Transformer 1     None      21      22    40.0      70.0      15.0        0.01         0.01    0.01        0.01           0.0     None          NaN      NaN      NaN               NaN              NaN      NaN              NaN                     <NA>                 False         1  1.0        True
--------------------------------------------------

RES_BUS:
       vm_pu  va_degree      p_mw        q_mvar
0   1.001540  -0.119813 -0.000037 -3.492320e-03
1   1.002752  -0.065747 -0.000998 -7.882277e-07
2   1.003704  -0.023300 -0.001057  0.000000e+00
3   1.000607  -0.220110  0.002142 -9.570305e-04
4   0.999350  -0.094258  0.001056  8.942049e-05
5   1.001338  -0.032926  0.000215 -9.350562e-04
6   1.002550  -0.013547 -0.001057 -4.342718e-04
7   1.001762  -0.106057 -0.000441 -3.055141e-03
8   1.000722  -0.043067 -0.002119 -5.163074e-03
9   0.999909   0.000689  0.008603  1.117383e-02
10  0.999897   0.000775  0.009717  9.993389e-03
11  0.999888   0.000828  0.010522  1.009803e-02
12  0.999855  -0.001324  0.010812  5.426368e-03
13  0.999825  -0.001192  0.012388  1.062257e-02
14  0.999835  -0.001219  0.015427  1.252335e-02
15  0.999950   0.000300  0.000000  0.000000e+00
16  0.999950   0.000298  0.000000  0.000000e+00
17  0.999860  -0.001264  0.000000  0.000000e+00
18  0.999860  -0.001270  0.000000  0.000000e+00
19  1.000000   0.000000 -0.028931 -3.183033e-02
20  1.000000   0.000004  0.000000  0.000000e+00
21  1.000000   0.000000 -0.036323 -2.409024e-02
22  1.000000   0.000003  0.000000  0.000000e+00
--------------------------------------------------

RES_LINE:
    p_from_mw   q_from_mvar   p_to_mw     q_to_mvar         pl_mw       ql_mvar  i_from_ka   i_to_ka      i_ka  vm_from_pu  va_from_degree  vm_to_pu  va_to_degree  loading_percent
0    0.028921  2.783035e-02 -0.028920 -2.782912e-02  1.575738e-06  1.228629e-06   0.001545  0.001545  0.001545    1.000000        0.000004  0.999950      0.000300         0.671681
1    0.036313  2.009026e-02 -0.036309 -2.008664e-02  4.632715e-06  3.612204e-06   0.001597  0.001597  0.001597    1.000000        0.000003  0.999860     -0.001264         0.694501
2    0.028844  3.126664e-02 -0.028842 -3.126555e-02  1.399446e-06  1.091171e-06   0.001637  0.001637  0.001637    0.999950        0.000300  0.999909      0.000689         0.711917
3    0.010812  5.426408e-03 -0.010812 -5.426368e-03  5.062249e-08  3.947119e-08   0.000466  0.000466  0.000466    0.999860       -0.001264  0.999855     -0.001324         0.202472
4    0.027816  2.314659e-02 -0.027816 -2.314603e-02  7.162340e-07  5.584595e-07   0.001393  0.001393  0.001393    0.999860       -0.001264  0.999835     -0.001219         0.605670
5    0.000066 -4.437375e-03 -0.000057  4.444558e-03  9.212496e-06  7.183134e-06   0.006406  0.006406  0.006406    0.999950        0.000298  1.001540     -0.119813         2.785140
6   -0.000839 -1.366890e-03  0.000841  1.368446e-03  1.995685e-06  1.556068e-06   0.002315  0.002315  0.002315    0.999860       -0.001270  1.001338     -0.032926         1.006509
7   -0.000434 -3.050139e-03  0.000441  3.055141e-03  6.414695e-06  5.001643e-06   0.004448  0.004448  0.004448    0.999860       -0.001270  1.001762     -0.106057         1.933715
8   -0.001056 -5.068990e-03  0.001061  5.072586e-03  4.611046e-06  3.595309e-06   0.007475  0.007475  0.007475    0.999860       -0.001270  1.000722     -0.043067         3.249870
9   -0.020239 -2.009150e-02  0.020239  2.009172e-02  2.813082e-07  2.193406e-07   0.001098  0.001098  0.001098    0.999897        0.000775  0.999909      0.000689         0.477293
10  -0.010522 -1.009803e-02  0.010522  1.009811e-02  1.040412e-07  8.112266e-08   0.000561  0.000561  0.000561    0.999888        0.000828  0.999897      0.000775         0.244084
11   0.012388  1.062268e-02 -0.012388 -1.062257e-02  1.302881e-07  1.015878e-07   0.000628  0.000628  0.000628    0.999835       -0.001219  0.999825     -0.001192         0.273142
12   0.002054  5.850221e-09 -0.002052  1.930369e-06  2.483235e-06  1.936219e-06   0.002957  0.002957  0.002957    1.002752       -0.065747  1.001540     -0.119813         1.285693
13  -0.002142  9.570305e-04  0.002146 -9.541679e-04  3.671343e-06  2.862606e-06   0.003385  0.003385  0.003385    1.000607       -0.220110  1.001540     -0.119813         1.471561
14   0.001057  2.831548e-11 -0.001056  7.823921e-07  1.003468e-06  7.824204e-07   0.001520  0.001520  0.001520    1.003704       -0.023300  1.002752     -0.065747         0.660962
15   0.001058  9.048842e-05 -0.001056 -8.942049e-05  1.369634e-06  1.067926e-06   0.001531  0.001531  0.001531    1.000722       -0.043067  0.999350     -0.094258         0.665813
16   0.001057  4.342718e-04 -0.001056 -4.333897e-04  1.131366e-06  8.821448e-07   0.001645  0.001645  0.001645    1.002550       -0.013547  1.001338     -0.032926         0.715383
--------------------------------------------------

RES_TRAFO:
    p_hv_mw  q_hv_mvar   p_lv_mw  q_lv_mvar    pl_mw  ql_mvar   i_hv_ka   i_lv_ka  vm_hv_pu  va_hv_degree  vm_lv_pu  va_lv_degree  loading_percent
0  0.000076  -0.003438 -0.000066   0.004437  0.00001    0.001  0.000132  0.006406   0.99995      0.000300   0.99995      0.000298         0.044381
1 -0.002319  -0.008486  0.002329   0.009486  0.00001    0.001  0.000339  0.014101   0.99986     -0.001264   0.99986     -0.001270         0.097692
2  0.028931   0.031830 -0.028921  -0.027830  0.00001    0.004  0.000355  0.001545   1.00000      0.000000   1.00000      0.000004         0.107534
3  0.036323   0.024090 -0.036313  -0.020090  0.00001    0.004  0.000359  0.001597   1.00000      0.000000   1.00000      0.000003         0.108965
--------------------------------------------------

RES_EXT_GRID:
       p_mw   q_mvar
0  0.028931  0.03183
1  0.036323  0.02409
--------------------------------------------------

RES_LOAD:
        p_mw        q_mvar
0  -0.000000  0.000000e+00
1  -0.000000 -0.000000e+00
2  -0.000000 -0.000000e+00
3  -0.000037 -3.492320e-03
4  -0.000000 -0.000000e+00
5  -0.000000 -0.000000e+00
6   0.000000 -0.000000e+00
7  -0.000998 -7.882277e-07
8  -0.000000  0.000000e+00
9   0.000000  0.000000e+00
10 -0.000000  0.000000e+00
11 -0.001057  0.000000e+00
12 -0.000000 -0.000000e+00
13  0.000000 -0.000000e+00
14  0.000000 -0.000000e+00
15  0.002142 -9.570305e-04
16 -0.000000 -0.000000e+00
17  0.000000 -0.000000e+00
18  0.000000 -0.000000e+00
19  0.001056  8.942049e-05
20 -0.000000 -0.000000e+00
21  0.000000 -0.000000e+00
22  0.000000 -0.000000e+00
23  0.000215 -9.350562e-04
24 -0.000000  0.000000e+00
25 -0.000000  0.000000e+00
26 -0.000000 -0.000000e+00
27 -0.001057 -4.342718e-04
28 -0.000000 -0.000000e+00
29  0.000000 -0.000000e+00
30  0.000000 -0.000000e+00
31 -0.000441 -3.055141e-03
32 -0.000000 -0.000000e+00
33  0.000000 -0.000000e+00
34 -0.000000 -0.000000e+00
35 -0.002119 -5.163074e-03
36  0.000000  0.000000e+00
37  0.000000  0.000000e+00
38  0.000000  0.000000e+00
39  0.008603  1.117383e-02
40  0.000000  0.000000e+00
41  0.000000  0.000000e+00
42  0.000000  0.000000e+00
43  0.009717  9.993389e-03
44  0.000000  0.000000e+00
45  0.000000  0.000000e+00
46  0.000000  0.000000e+00
47  0.010522  1.009803e-02
48 -0.000000  0.000000e+00
49  0.000000  0.000000e+00
50  0.000000  0.000000e+00
51  0.010812  5.426368e-03
52  0.000000  0.000000e+00
53  0.000000  0.000000e+00
54  0.000000  0.000000e+00
55  0.012388  1.062257e-02
56  0.000000  0.000000e+00
57  0.000000  0.000000e+00
58  0.000000  0.000000e+00
59  0.015427  1.252335e-02
--------------------------------------------------

BUS_GEODATA:
        x      y
0    11.0   48.0
1    25.0   38.0
2    51.0   42.0
3     0.0   64.0
4   129.0  138.0
5   105.0   88.0
6   130.0   92.0
7    81.0  115.0
8   103.0  114.0
9    10.0   70.0
10   20.0   80.0
11   40.0   80.0
12   90.0  120.0
13  120.0  120.0
14  120.0  100.0
15    0.0   40.0
16    0.5   39.5
17  100.0  110.0
18  100.5  109.5
19    0.0    0.0
20    0.5   -0.5
21  100.0    0.0
22  100.5   -0.5
--------------------------------------------------
